<?xml version='1.0' encoding='UTF-8'?>
<routes xmlns:xsi="http://www.w3.org/2001/XMLSchema-instance" xsi:noNamespaceSchemaLocation="http://sumo.dlr.de/xsd/routes_file.xsd">
  <vehicle id="1" type="vehicle.audi.a2" depart="4.0" departLane="best">
    <route edges="-29.0.00 25.0.00"/>
  </vehicle>
  <vehicle id="2" type="vehicle.audi.a2" depart="4.1" departLane="best">
    <route edges="-39.0.00 -0.0.00"/>
  </vehicle>
</routes>
