<?xml version='1.0' encoding='UTF-8'?>
<routes xmlns:xsi="http://www.w3.org/2001/XMLSchema-instance" xsi:noNamespaceSchemaLocation="http://sumo.dlr.de/xsd/routes_file.xsd">
  <vehicle id="1" type="vehicle.audi.a2" depart="2.5" departLane="best">
    <route edges="-39.0.00 25.0.00"/>
  </vehicle>
  <vehicle id="2" type="vehicle.audi.a2" depart="4.0" departLane="best">
    <route edges="-29.0.00 25.0.00"/>
  </vehicle>
  <vehicle id="3" type="vehicle.audi.a2" depart="5.4" departLane="best">
    <route edges="-16.0.00 39.0.00"/>
  </vehicle>
  <vehicle id="4" type="vehicle.audi.a2" depart="7.0" departLane="best">
    <route edges="-39.0.00 -0.0.00"/>
  </vehicle>
  <vehicle id="5" type="vehicle.audi.a2" depart="9.0" departLane="best">
    <route edges="0.0.00 25.0.00"/>
  </vehicle>
  <vehicle id="6" type="vehicle.audi.a2" depart="10.0" departLane="best">
    <route edges="0.0.00 39.0.00"/>
  </vehicle>
</routes>
